OPT_V8/Brussels_test_1203-1157/network_debug.txt
Pandapower Network Debug Info
==================================================

BUS:
          name  vn_kv type  zone  in_service
0        Bus 8    0.4    b  None        True
1        Bus 9    0.4    b  None        True
2       Bus 10    0.4    b  None        True
3       Bus 11    0.4    b  None        True
4       Bus 16    0.4    b  None        True
5       Bus 17    0.4    b  None        True
6       Bus 18    0.4    b  None        True
7       Bus 19    0.4    b  None        True
8       Bus 20    0.4    b  None        True
9       Bus 21   15.0    b  None        True
10      Bus 22   15.0    b  None        True
11      Bus 23   15.0    b  None        True
12      Bus 24   15.0    b  None        True
13      Bus 25   15.0    b  None        True
14      Bus 26   15.0    b  None        True
15    Sub MV 2   15.0    b  None        True
16    Sub LV 2    0.4    b  None        True
17    Sub MV 5   15.0    b  None        True
18    Sub LV 5    0.4    b  None        True
19  Slack HV 0   70.0    b  None        True
20  Slack MV 0   15.0    b  None        True
21  Slack HV 1   70.0    b  None        True
22  Slack MV 1   15.0    b  None        True
--------------------------------------------------

LOAD:
            name  bus          p_mw    q_mvar  const_z_percent  const_i_percent  sn_mva  scaling  in_service type
0      Load 8 T1    0  1.191342e-03  0.001052              0.0              0.0     NaN      1.0        True  wye
1      Load 8 T2    0  8.218091e-04  0.000814              0.0              0.0     NaN      1.0        True  wye
2      Load 8 T3    0  1.090265e-03  0.000955              0.0              0.0     NaN      1.0        True  wye
3      Load 8 T4    0  9.935447e-04  0.000804              0.0              0.0     NaN      1.0        True  wye
4      Load 8 T5    0  1.176689e-03  0.000828              0.0              0.0     NaN      1.0        True  wye
5      Load 8 T6    0  9.627418e-04  0.000868              0.0              0.0     NaN      1.0        True  wye
6      Load 8 T7    0  1.167697e-03  0.000892              0.0              0.0     NaN      1.0        True  wye
7      Load 8 T8    0 -2.668751e-05  0.000910              0.0              0.0     NaN      1.0        True  wye
8      Load 8 T9    0 -3.711208e-05  0.001111              0.0              0.0     NaN      1.0        True  wye
9     Load 8 T10    0 -2.961840e-05  0.000966              0.0              0.0     NaN      1.0        True  wye
10    Load 8 T11    0 -3.875297e-05  0.001143              0.0              0.0     NaN      1.0        True  wye
11    Load 8 T12    0 -3.960262e-05  0.001159              0.0              0.0     NaN      1.0        True  wye
12     Load 9 T1    1  1.787013e-03  0.002105              0.0              0.0     NaN      1.0        True  wye
13     Load 9 T2    1  1.232714e-03  0.001627              0.0              0.0     NaN      1.0        True  wye
14     Load 9 T3    1  1.635397e-03  0.001910              0.0              0.0     NaN      1.0        True  wye
15     Load 9 T4    1  1.490317e-03  0.001609              0.0              0.0     NaN      1.0        True  wye
16     Load 9 T5    1  1.765034e-03  0.001655              0.0              0.0     NaN      1.0        True  wye
17     Load 9 T6    1  1.444113e-03  0.001736              0.0              0.0     NaN      1.0        True  wye
18     Load 9 T7    1  1.751546e-03  0.001785              0.0              0.0     NaN      1.0        True  wye
19     Load 9 T8    1 -6.748959e-06  0.001819              0.0              0.0     NaN      1.0        True  wye
20     Load 9 T9    1 -8.433602e-06  0.002223              0.0              0.0     NaN      1.0        True  wye
21    Load 9 T10    1 -6.704723e-06  0.001933              0.0              0.0     NaN      1.0        True  wye
22    Load 9 T11    1 -7.929769e-06  0.002286              0.0              0.0     NaN      1.0        True  wye
23    Load 9 T12    1 -8.043716e-06  0.002319              0.0              0.0     NaN      1.0        True  wye
24    Load 10 T1    2  2.382684e-03  0.003157              0.0              0.0     NaN      1.0        True  wye
25    Load 10 T2    2  1.643618e-03  0.002441              0.0              0.0     NaN      1.0        True  wye
26    Load 10 T3    2  2.180529e-03  0.002865              0.0              0.0     NaN      1.0        True  wye
27    Load 10 T4    2  1.987089e-03  0.002413              0.0              0.0     NaN      1.0        True  wye
28    Load 10 T5    2  2.353379e-03  0.002483              0.0              0.0     NaN      1.0        True  wye
29    Load 10 T6    2  1.925484e-03  0.002604              0.0              0.0     NaN      1.0        True  wye
30    Load 10 T7    2  2.335394e-03  0.002677              0.0              0.0     NaN      1.0        True  wye
31    Load 10 T8    2  1.150566e-08  0.002729              0.0              0.0     NaN      1.0        True  wye
32    Load 10 T9    2  0.000000e+00  0.003334              0.0              0.0     NaN      1.0        True  wye
33   Load 10 T10    2  0.000000e+00  0.002899              0.0              0.0     NaN      1.0        True  wye
34   Load 10 T11    2  0.000000e+00  0.003429              0.0              0.0     NaN      1.0        True  wye
35   Load 10 T12    2  0.000000e+00  0.003478              0.0              0.0     NaN      1.0        True  wye
36    Load 11 T1    3  2.978355e-03  0.004209              0.0              0.0     NaN      1.0        True  wye
37    Load 11 T2    3  2.054523e-03  0.003255              0.0              0.0     NaN      1.0        True  wye
38    Load 11 T3    3  2.725662e-03  0.003819              0.0              0.0     NaN      1.0        True  wye
39    Load 11 T4    3  2.483862e-03  0.003218              0.0              0.0     NaN      1.0        True  wye
40    Load 11 T5    3  2.941723e-03  0.003311              0.0              0.0     NaN      1.0        True  wye
41    Load 11 T6    3  2.406854e-03  0.003472              0.0              0.0     NaN      1.0        True  wye
42    Load 11 T7    3  2.919243e-03  0.003569              0.0              0.0     NaN      1.0        True  wye
43    Load 11 T8    3  0.000000e+00  0.003639              0.0              0.0     NaN      1.0        True  wye
44    Load 11 T9    3  0.000000e+00  0.004445              0.0              0.0     NaN      1.0        True  wye
45   Load 11 T10    3 -5.178755e-07  0.003866              0.0              0.0     NaN      1.0        True  wye
46   Load 11 T11    3  0.000000e+00  0.004572              0.0              0.0     NaN      1.0        True  wye
47   Load 11 T12    3  1.015165e-04  0.004638              0.0              0.0     NaN      1.0        True  wye
48    Load 16 T1    4  3.574026e-03  0.005262              0.0              0.0     NaN      1.0        True  wye
49    Load 16 T2    4  2.465427e-03  0.004068              0.0              0.0     NaN      1.0        True  wye
50    Load 16 T3    4  3.270794e-03  0.004774              0.0              0.0     NaN      1.0        True  wye
51    Load 16 T4    4  2.980634e-03  0.004022              0.0              0.0     NaN      1.0        True  wye
52    Load 16 T5    4  3.530068e-03  0.004139              0.0              0.0     NaN      1.0        True  wye
53    Load 16 T6    4  2.888225e-03  0.004341              0.0              0.0     NaN      1.0        True  wye
54    Load 16 T7    4  3.503092e-03  0.004461              0.0              0.0     NaN      1.0        True  wye
55    Load 16 T8    4 -1.653645e-03  0.004549              0.0              0.0     NaN      1.0        True  wye
56    Load 16 T9    4 -1.740275e-05  0.005556              0.0              0.0     NaN      1.0        True  wye
57   Load 16 T10    4 -1.513424e-05  0.004832              0.0              0.0     NaN      1.0        True  wye
58   Load 16 T11    4 -1.789948e-05  0.005715              0.0              0.0     NaN      1.0        True  wye
59   Load 16 T12    4 -1.815669e-05  0.005797              0.0              0.0     NaN      1.0        True  wye
60    Load 17 T1    5  4.169697e-03  0.006314              0.0              0.0     NaN      1.0        True  wye
61    Load 17 T2    5  2.876332e-03  0.004882              0.0              0.0     NaN      1.0        True  wye
62    Load 17 T3    5  3.815926e-03  0.005729              0.0              0.0     NaN      1.0        True  wye
63    Load 17 T4    5  3.477406e-03  0.004827              0.0              0.0     NaN      1.0        True  wye
64    Load 17 T5    5  4.118413e-03  0.004966              0.0              0.0     NaN      1.0        True  wye
65    Load 17 T6    5  3.369596e-03  0.005209              0.0              0.0     NaN      1.0        True  wye
66    Load 17 T7    5  4.086940e-03  0.005354              0.0              0.0     NaN      1.0        True  wye
67    Load 17 T8    5 -1.087372e-05  0.005458              0.0              0.0     NaN      1.0        True  wye
68    Load 17 T9    5 -2.843962e-04  0.006668              0.0              0.0     NaN      1.0        True  wye
69   Load 17 T10    5 -1.098917e-03  0.005798              0.0              0.0     NaN      1.0        True  wye
70   Load 17 T11    5 -1.849344e-05  0.006858              0.0              0.0     NaN      1.0        True  wye
71   Load 17 T12    5 -1.616733e-05  0.006956              0.0              0.0     NaN      1.0        True  wye
72    Load 18 T1    6  1.429610e-03  0.001052              0.0              0.0     NaN      1.0        True  wye
73    Load 18 T2    6  9.861709e-04  0.000814              0.0              0.0     NaN      1.0        True  wye
74    Load 18 T3    6  1.308318e-03  0.000955              0.0              0.0     NaN      1.0        True  wye
75    Load 18 T4    6  1.192254e-03  0.000804              0.0              0.0     NaN      1.0        True  wye
76    Load 18 T5    6  1.412027e-03  0.000828              0.0              0.0     NaN      1.0        True  wye
77    Load 18 T6    6  1.155290e-03  0.000868              0.0              0.0     NaN      1.0        True  wye
78    Load 18 T7    6  1.401237e-03  0.000892              0.0              0.0     NaN      1.0        True  wye
79    Load 18 T8    6  0.000000e+00  0.000910              0.0              0.0     NaN      1.0        True  wye
80    Load 18 T9    6  0.000000e+00  0.001111              0.0              0.0     NaN      1.0        True  wye
81   Load 18 T10    6  1.158230e-03  0.000966              0.0              0.0     NaN      1.0        True  wye
82   Load 18 T11    6  0.000000e+00  0.001143              0.0              0.0     NaN      1.0        True  wye
83   Load 18 T12    6  0.000000e+00  0.001159              0.0              0.0     NaN      1.0        True  wye
84    Load 19 T1    7  2.144415e-03  0.002105              0.0              0.0     NaN      1.0        True  wye
85    Load 19 T2    7  1.479256e-03  0.001627              0.0              0.0     NaN      1.0        True  wye
86    Load 19 T3    7  1.962476e-03  0.001910              0.0              0.0     NaN      1.0        True  wye
87    Load 19 T4    7  1.788380e-03  0.001609              0.0              0.0     NaN      1.0        True  wye
88    Load 19 T5    7  2.118041e-03  0.001655              0.0              0.0     NaN      1.0        True  wye
89    Load 19 T6    7  1.732935e-03  0.001736              0.0              0.0     NaN      1.0        True  wye
90    Load 19 T7    7  2.101855e-03  0.001785              0.0              0.0     NaN      1.0        True  wye
91    Load 19 T8    7 -3.154613e-06  0.001819              0.0              0.0     NaN      1.0        True  wye
92    Load 19 T9    7  4.155454e-04  0.002223              0.0              0.0     NaN      1.0        True  wye
93   Load 19 T10    7 -3.351069e-06  0.001933              0.0              0.0     NaN      1.0        True  wye
94   Load 19 T11    7  9.069337e-05  0.002286              0.0              0.0     NaN      1.0        True  wye
95   Load 19 T12    7  7.300398e-04  0.002319              0.0              0.0     NaN      1.0        True  wye
96    Load 20 T1    8  2.620952e-03  0.003157              0.0              0.0     NaN      1.0        True  wye
97    Load 20 T2    8  1.807980e-03  0.002441              0.0              0.0     NaN      1.0        True  wye
98    Load 20 T3    8  2.398582e-03  0.002865              0.0              0.0     NaN      1.0        True  wye
99    Load 20 T4    8  2.185798e-03  0.002413              0.0              0.0     NaN      1.0        True  wye
100   Load 20 T5    8  2.588716e-03  0.002483              0.0              0.0     NaN      1.0        True  wye
101   Load 20 T6    8  2.118032e-03  0.002604              0.0              0.0     NaN      1.0        True  wye
102   Load 20 T7    8  2.568934e-03  0.002677              0.0              0.0     NaN      1.0        True  wye
103   Load 20 T8    8  1.635782e-03  0.002729              0.0              0.0     NaN      1.0        True  wye
104   Load 20 T9    8 -1.684230e-04  0.003334              0.0              0.0     NaN      1.0        True  wye
105  Load 20 T10    8 -3.416275e-06  0.002899              0.0              0.0     NaN      1.0        True  wye
106  Load 20 T11    8 -6.322932e-06  0.003429              0.0              0.0     NaN      1.0        True  wye
107  Load 20 T12    8 -7.392624e-04  0.003478              0.0              0.0     NaN      1.0        True  wye
108   Load 21 T1    9  1.191342e-02  0.010523              0.0              0.0     NaN      1.0        True  wye
109   Load 21 T2    9  8.218091e-03  0.008137              0.0              0.0     NaN      1.0        True  wye
110   Load 21 T3    9  1.090265e-02  0.009549              0.0              0.0     NaN      1.0        True  wye
111   Load 21 T4    9  9.935447e-03  0.008044              0.0              0.0     NaN      1.0        True  wye
112   Load 21 T5    9  1.176689e-02  0.008277              0.0              0.0     NaN      1.0        True  wye
113   Load 21 T6    9  9.627418e-03  0.008681              0.0              0.0     NaN      1.0        True  wye
114   Load 21 T7    9  1.167697e-02  0.008923              0.0              0.0     NaN      1.0        True  wye
115   Load 21 T8    9 -2.968177e-07  0.009097              0.0              0.0     NaN      1.0        True  wye
116   Load 21 T9    9 -9.671764e-07  0.011113              0.0              0.0     NaN      1.0        True  wye
117  Load 21 T10    9 -3.153022e-07  0.009664              0.0              0.0     NaN      1.0        True  wye
118  Load 21 T11    9 -9.929465e-07  0.011430              0.0              0.0     NaN      1.0        True  wye
119  Load 21 T12    9 -1.032167e-06  0.011594              0.0              0.0     NaN      1.0        True  wye
120   Load 22 T1   10  1.310476e-02  0.009471              0.0              0.0     NaN      1.0        True  wye
121   Load 22 T2   10  9.039900e-03  0.007323              0.0              0.0     NaN      1.0        True  wye
122   Load 22 T3   10  1.199291e-02  0.008594              0.0              0.0     NaN      1.0        True  wye
123   Load 22 T4   10  1.092899e-02  0.007240              0.0              0.0     NaN      1.0        True  wye
124   Load 22 T5   10  1.294358e-02  0.007450              0.0              0.0     NaN      1.0        True  wye
125   Load 22 T6   10  1.059016e-02  0.007813              0.0              0.0     NaN      1.0        True  wye
126   Load 22 T7   10  1.284467e-02  0.008030              0.0              0.0     NaN      1.0        True  wye
127   Load 22 T8   10 -5.302233e-08  0.008188              0.0              0.0     NaN      1.0        True  wye
128   Load 22 T9   10 -6.476691e-08  0.010001              0.0              0.0     NaN      1.0        True  wye
129  Load 22 T10   10 -5.632433e-08  0.008698              0.0              0.0     NaN      1.0        True  wye
130  Load 22 T11   10 -6.661558e-08  0.010287              0.0              0.0     NaN      1.0        True  wye
131  Load 22 T12   10 -6.757281e-08  0.010435              0.0              0.0     NaN      1.0        True  wye
132   Load 23 T1   11  1.429610e-02  0.011576              0.0              0.0     NaN      1.0        True  wye
133   Load 23 T2   11  9.861709e-03  0.008950              0.0              0.0     NaN      1.0        True  wye
134   Load 23 T3   11  1.308318e-02  0.010504              0.0              0.0     NaN      1.0        True  wye
135   Load 23 T4   11  1.192254e-02  0.008849              0.0              0.0     NaN      1.0        True  wye
136   Load 23 T5   11  1.412027e-02  0.009105              0.0              0.0     NaN      1.0        True  wye
137   Load 23 T6   11  1.155290e-02  0.009549              0.0              0.0     NaN      1.0        True  wye
138   Load 23 T7   11  1.401237e-02  0.009815              0.0              0.0     NaN      1.0        True  wye
139   Load 23 T8   11 -1.150566e-08  0.010007              0.0              0.0     NaN      1.0        True  wye
140   Load 23 T9   11  0.000000e+00  0.012224              0.0              0.0     NaN      1.0        True  wye
141  Load 23 T10   11  0.000000e+00  0.010630              0.0              0.0     NaN      1.0        True  wye
142  Load 23 T11   11  0.000000e+00  0.012573              0.0              0.0     NaN      1.0        True  wye
143  Load 23 T12   11  0.000000e+00  0.012753              0.0              0.0     NaN      1.0        True  wye
144   Load 24 T1   12  1.191342e-02  0.006314              0.0              0.0     NaN      1.0        True  wye
145   Load 24 T2   12  8.218091e-03  0.004882              0.0              0.0     NaN      1.0        True  wye
146   Load 24 T3   12  1.090265e-02  0.005729              0.0              0.0     NaN      1.0        True  wye
147   Load 24 T4   12  9.935447e-03  0.004827              0.0              0.0     NaN      1.0        True  wye
148   Load 24 T5   12  1.176689e-02  0.004966              0.0              0.0     NaN      1.0        True  wye
149   Load 24 T6   12  9.627418e-03  0.005209              0.0              0.0     NaN      1.0        True  wye
150   Load 24 T7   12  1.167697e-02  0.005354              0.0              0.0     NaN      1.0        True  wye
151   Load 24 T8   12 -2.045059e-08  0.005458              0.0              0.0     NaN      1.0        True  wye
152   Load 24 T9   12 -3.866270e-04  0.006668              0.0              0.0     NaN      1.0        True  wye
153  Load 24 T10   12 -2.172417e-08  0.005798              0.0              0.0     NaN      1.0        True  wye
154  Load 24 T11   12 -2.569348e-08  0.006858              0.0              0.0     NaN      1.0        True  wye
155  Load 24 T12   12 -8.696744e-06  0.006956              0.0              0.0     NaN      1.0        True  wye
156   Load 25 T1   13  1.429610e-02  0.010523              0.0              0.0     NaN      1.0        True  wye
157   Load 25 T2   13  9.861709e-03  0.008137              0.0              0.0     NaN      1.0        True  wye
158   Load 25 T3   13  1.308318e-02  0.009549              0.0              0.0     NaN      1.0        True  wye
159   Load 25 T4   13  1.192254e-02  0.008044              0.0              0.0     NaN      1.0        True  wye
160   Load 25 T5   13  1.412027e-02  0.008277              0.0              0.0     NaN      1.0        True  wye
161   Load 25 T6   13  1.155290e-02  0.008681              0.0              0.0     NaN      1.0        True  wye
162   Load 25 T7   13  1.401237e-02  0.008923              0.0              0.0     NaN      1.0        True  wye
163   Load 25 T8   13  6.606733e-05  0.009097              0.0              0.0     NaN      1.0        True  wye
164   Load 25 T9   13 -5.887969e-08  0.011113              0.0              0.0     NaN      1.0        True  wye
165  Load 25 T10   13 -5.120454e-08  0.009664              0.0              0.0     NaN      1.0        True  wye
166  Load 25 T11   13 -6.056032e-08  0.011430              0.0              0.0     NaN      1.0        True  wye
167  Load 25 T12   13 -5.995115e-08  0.011594              0.0              0.0     NaN      1.0        True  wye
168   Load 26 T1   14  1.548745e-02  0.012628              0.0              0.0     NaN      1.0        True  wye
169   Load 26 T2   14  1.068352e-02  0.009764              0.0              0.0     NaN      1.0        True  wye
170   Load 26 T3   14  1.417344e-02  0.011458              0.0              0.0     NaN      1.0        True  wye
171   Load 26 T4   14  1.291608e-02  0.009653              0.0              0.0     NaN      1.0        True  wye
172   Load 26 T5   14  1.529696e-02  0.009933              0.0              0.0     NaN      1.0        True  wye
173   Load 26 T6   14  1.251564e-02  0.010417              0.0              0.0     NaN      1.0        True  wye
174   Load 26 T7   14  1.518006e-02  0.010707              0.0              0.0     NaN      1.0        True  wye
175   Load 26 T8   14 -3.689566e-07  0.010917              0.0              0.0     NaN      1.0        True  wye
176   Load 26 T9   14  4.879402e-04  0.013335              0.0              0.0     NaN      1.0        True  wye
177  Load 26 T10   14 -1.259473e-07  0.011597              0.0              0.0     NaN      1.0        True  wye
178  Load 26 T11   14 -1.489597e-07  0.013716              0.0              0.0     NaN      1.0        True  wye
179  Load 26 T12   14 -4.671373e-07  0.013913              0.0              0.0     NaN      1.0        True  wye
--------------------------------------------------

EXT_GRID:
        name  bus  vm_pu  va_degree  slack_weight  in_service
0  ExtGrid 0   19    1.0        0.0           1.0        True
1  ExtGrid 1   21    1.0        0.0           1.0        True
--------------------------------------------------

LINE:
       name std_type  from_bus  to_bus  length_km  r_ohm_per_km  x_ohm_per_km  c_nf_per_km  g_us_per_km  max_i_ka   df  parallel  type  in_service
0    Line 0     None        20      15   0.400000        0.5502         0.429          0.0          0.0      0.23  1.0         1  None        True
1    Line 7     None        22      17   1.100000        0.5502         0.429          0.0          0.0      0.23  1.0         1  None        True
2    Line 8     None        15       9   0.316228        0.5502         0.429          0.0          0.0      0.23  1.0         1  None        True
3   Line 17     None        17      12   0.141421        0.5502         0.429          0.0          0.0      0.23  1.0         1  None        True
4   Line 19     None        17      14   0.223607        0.5502         0.429          0.0          0.0      0.23  1.0         1  None        True
5   Line 20     None        16       0   0.136015        0.5502         0.429          0.0          0.0      0.23  1.0         1  None        True
6   Line 34     None        18       5   0.225610        0.5502         0.429          0.0          0.0      0.23  1.0         1  None        True
7   Line 36     None        18       7   0.196469        0.5502         0.429          0.0          0.0      0.23  1.0         1  None        True
8   Line 37     None        18       8   0.050000        0.5502         0.429          0.0          0.0      0.23  1.0         1  None        True
9   Line 38     None        10       9   0.141421        0.5502         0.429          0.0          0.0      0.23  1.0         1  None        True
10  Line 40     None        11      10   0.200000        0.5502         0.429          0.0          0.0      0.23  1.0         1  None        True
11  Line 43     None        14      13   0.200000        0.5502         0.429          0.0          0.0      0.23  1.0         1  None        True
12  Line 44     None         1       0   0.172047        0.5502         0.429          0.0          0.0      0.23  1.0         1  None        True
13  Line 46     None         3       0   0.194165        0.5502         0.429          0.0          0.0      0.23  1.0         1  None        True
14  Line 47     None         2       1   0.263059        0.5502         0.429          0.0          0.0      0.23  1.0         1  None        True
15  Line 52     None         8       4   0.353836        0.5502         0.429          0.0          0.0      0.23  1.0         1  None        True
16  Line 53     None         6       5   0.253180        0.5502         0.429          0.0          0.0      0.23  1.0         1  None        True
--------------------------------------------------

TRAFO:
                  name std_type  hv_bus  lv_bus  sn_mva  vn_hv_kv  vn_lv_kv  vk_percent  vkr_percent  pfe_kw  i0_percent  shift_degree tap_side  tap_neutral  tap_min  tap_max  tap_step_percent  tap_step_degree  tap_pos  tap_phase_shifter  parallel   df  in_service
0  MV/LV Transformer 2     None      15      16    10.0      15.0       0.4        0.01         0.01    0.01        0.01           0.0     None          NaN      NaN      NaN               NaN              NaN      NaN              False         1  1.0        True
1  MV/LV Transformer 5     None      17      18    10.0      15.0       0.4        0.01         0.01    0.01        0.01           0.0     None          NaN      NaN      NaN               NaN              NaN      NaN              False         1  1.0        True
2  Slack Transformer 0     None      19      20    40.0      70.0      15.0        0.01         0.01    0.01        0.01           0.0     None          NaN      NaN      NaN               NaN              NaN      NaN              False         1  1.0        True
3  Slack Transformer 1     None      21      22    40.0      70.0      15.0        0.01         0.01    0.01        0.01           0.0     None          NaN      NaN      NaN               NaN              NaN      NaN              False         1  1.0        True
--------------------------------------------------

BUS_GEODATA:
        x      y
0    11.0   48.0
1    25.0   38.0
2    51.0   42.0
3     0.0   64.0
4   129.0  138.0
5   105.0   88.0
6   130.0   92.0
7    81.0  115.0
8   103.0  114.0
9    10.0   70.0
10   20.0   80.0
11   40.0   80.0
12   90.0  120.0
13  120.0  120.0
14  120.0  100.0
15    0.0   40.0
16    0.5   39.5
17  100.0  110.0
18  100.5  109.5
19    0.0    0.0
20    0.5   -0.5
21  100.0    0.0
22  100.5   -0.5
--------------------------------------------------

RES_BUS:
       vm_pu  va_degree          p_mw    q_mvar
0   0.995642   0.313609 -3.960262e-05  0.001159
1   0.992937   0.512593 -8.043716e-06  0.002319
2   0.990455   0.695898  0.000000e+00  0.003478
3   0.993138   0.489968  1.015165e-04  0.004638
4   0.993220   0.513941 -1.815669e-05  0.005797
5   0.994945   0.371415 -1.616733e-05  0.006956
6   0.994153   0.429885  0.000000e+00  0.001159
7   0.998170   0.076077  7.300398e-04  0.002319
8   0.998761   0.105543 -7.392624e-04  0.003478
9   0.999943   0.004201 -1.032167e-06  0.011594
10  0.999936   0.004660 -6.757281e-08  0.010435
11  0.999932   0.005018  0.000000e+00  0.012753
12  0.999886   0.008347 -8.696744e-06  0.006956
13  0.999873   0.009333 -5.995115e-08  0.011594
14  0.999877   0.009008 -4.671373e-07  0.013913
15  0.999964   0.002660  0.000000e+00  0.000000
16  0.999964   0.002666  0.000000e+00  0.000000
17  0.999888   0.008209  0.000000e+00  0.000000
18  0.999888   0.008220  0.000000e+00  0.000000
19  1.000000   0.000000 -1.859500e-04 -0.051464
20  1.000000   0.000007  0.000000e+00  0.000000
21  1.000000   0.000000 -8.860364e-05 -0.057267
22  1.000000   0.000008  0.000000e+00  0.000000
--------------------------------------------------

RES_LINE:
       p_from_mw  q_from_mvar       p_to_mw  q_to_mvar         pl_mw       ql_mvar  i_from_ka   i_to_ka      i_ka  vm_from_pu  va_from_degree  vm_to_pu  va_to_degree  loading_percent
0   1.759439e-04     0.047464 -1.737403e-04  -0.047462  2.203608e-06  1.718189e-06   0.001827  0.001827  0.001827    1.000000        0.000007  0.999964      0.002660         0.794307
1   7.859608e-05     0.053267 -7.096381e-05  -0.053261  7.632264e-06  5.951002e-06   0.002050  0.002050  0.002050    1.000000        0.000008  0.999888      0.008209         0.891418
2   1.014094e-07     0.034783  8.342150e-07  -0.034782  9.356244e-07  7.295217e-07   0.001339  0.001339  0.001339    0.999964        0.002660  0.999943      0.004201         0.582106
3  -8.680006e-06     0.006956  8.696745e-06  -0.006956  1.673867e-08  1.305142e-08   0.000268  0.000268  0.000268    0.999888        0.008209  0.999886      0.008347         0.116427
4  -1.055013e-07     0.025507  4.613315e-07  -0.025507  3.558302e-07  2.774467e-07   0.000982  0.000982  0.000982    0.999888        0.008209  0.999877      0.009008         0.426904
5   1.636382e-04     0.011680 -9.981802e-05  -0.011630  6.382014e-05  4.976161e-05   0.016860  0.016860  0.016860    0.999964        0.002666  0.995642      0.313609         7.330560
6   3.664936e-05     0.008157  1.498323e-05  -0.008117  5.163259e-05  4.025878e-05   0.011775  0.011775  0.011775    0.999888        0.008220  0.994945      0.371415         5.119573
7   7.340472e-04     0.002322 -7.300398e-04  -0.002319  4.007350e-06  3.124597e-06   0.003515  0.003515  0.003515    0.999888        0.008220  0.998170      0.076077         1.528386
8  -7.009491e-04     0.009319  7.159693e-04  -0.009308  1.502026e-05  1.171154e-05   0.013491  0.013491  0.013491    0.999888        0.008220  0.998761      0.105543         5.865498
9  -1.198489e-08    -0.023188  1.979522e-07   0.023188  1.859673e-07  1.450018e-07   0.000893  0.000893  0.000893    0.999936        0.004660  0.999943      0.004201         0.388072
10 -2.856021e-13    -0.012753  7.955737e-08   0.012753  7.955709e-08  6.203197e-08   0.000491  0.000491  0.000491    0.999932        0.005018  0.999936      0.004660         0.213440
11  5.806305e-09     0.011594  5.995108e-08  -0.011594  6.575739e-08  5.127212e-08   0.000446  0.000446  0.000446    0.999877        0.009008  0.999873      0.009333         0.194048
12 -3.111874e-06    -0.005806  2.333794e-05   0.005821  2.022606e-05  1.577060e-05   0.008439  0.008439  0.008439    0.992937        0.512593  0.995642      0.313609         3.669307
13 -1.015165e-04    -0.004638  1.160827e-04   0.004649  1.456619e-05  1.135750e-05   0.006742  0.006742  0.006742    0.993138        0.489968  0.995642      0.313609         2.931156
14  9.679893e-17    -0.003478  1.115559e-05   0.003487  1.115559e-05  8.698197e-06   0.005069  0.005069  0.005069    0.990455        0.695898  0.992937      0.512593         2.203794
15  2.329307e-05     0.005829  1.815669e-05  -0.005797  4.144975e-05  3.231906e-05   0.008424  0.008424  0.008424    0.998761        0.105543  0.993220      0.513941         3.662783
16  7.684961e-17    -0.001159  1.184103e-06   0.001160  1.184103e-06  9.232646e-07   0.001683  0.001683  0.001683    0.994153        0.429885  0.994945      0.371415         0.731866
--------------------------------------------------

RES_TRAFO:
    p_hv_mw  q_hv_mvar   p_lv_mw  q_lv_mvar    pl_mw  ql_mvar   i_hv_ka   i_lv_ka  vm_hv_pu  va_hv_degree  vm_lv_pu  va_lv_degree  loading_percent
0  0.000174   0.012679 -0.000164  -0.011680  0.00001    0.001  0.000488  0.016860  0.999964      0.002660  0.999964      0.002666         0.126811
1  0.000080   0.020798 -0.000070  -0.019798  0.00001    0.001  0.000801  0.028580  0.999888      0.008209  0.999888      0.008220         0.208003
2  0.000186   0.051464 -0.000176  -0.047464  0.00001    0.004  0.000424  0.001827  1.000000      0.000000  1.000000      0.000007         0.128661
3  0.000089   0.057267 -0.000079  -0.053267  0.00001    0.004  0.000472  0.002050  1.000000      0.000000  1.000000      0.000008         0.143168
--------------------------------------------------

RES_EXT_GRID:
       p_mw    q_mvar
0  0.000186  0.051464
1  0.000089  0.057267
--------------------------------------------------

RES_LOAD:
             p_mw    q_mvar
0    0.000000e+00  0.000000
1    0.000000e+00  0.000000
2    0.000000e+00  0.000000
3    0.000000e+00  0.000000
4    0.000000e+00  0.000000
5    0.000000e+00  0.000000
6    0.000000e+00  0.000000
7   -0.000000e+00  0.000000
8   -0.000000e+00  0.000000
9   -0.000000e+00  0.000000
10  -0.000000e+00  0.000000
11  -3.960262e-05  0.001159
12   0.000000e+00  0.000000
13   0.000000e+00  0.000000
14   0.000000e+00  0.000000
15   0.000000e+00  0.000000
16   0.000000e+00  0.000000
17   0.000000e+00  0.000000
18   0.000000e+00  0.000000
19  -0.000000e+00  0.000000
20  -0.000000e+00  0.000000
21  -0.000000e+00  0.000000
22  -0.000000e+00  0.000000
23  -8.043716e-06  0.002319
24   0.000000e+00  0.000000
25   0.000000e+00  0.000000
26   0.000000e+00  0.000000
27   0.000000e+00  0.000000
28   0.000000e+00  0.000000
29   0.000000e+00  0.000000
30   0.000000e+00  0.000000
31   0.000000e+00  0.000000
32   0.000000e+00  0.000000
33   0.000000e+00  0.000000
34   0.000000e+00  0.000000
35   0.000000e+00  0.003478
36   0.000000e+00  0.000000
37   0.000000e+00  0.000000
38   0.000000e+00  0.000000
39   0.000000e+00  0.000000
40   0.000000e+00  0.000000
41   0.000000e+00  0.000000
42   0.000000e+00  0.000000
43   0.000000e+00  0.000000
44   0.000000e+00  0.000000
45  -0.000000e+00  0.000000
46   0.000000e+00  0.000000
47   1.015165e-04  0.004638
48   0.000000e+00  0.000000
49   0.000000e+00  0.000000
50   0.000000e+00  0.000000
51   0.000000e+00  0.000000
52   0.000000e+00  0.000000
53   0.000000e+00  0.000000
54   0.000000e+00  0.000000
55  -0.000000e+00  0.000000
56  -0.000000e+00  0.000000
57  -0.000000e+00  0.000000
58  -0.000000e+00  0.000000
59  -1.815669e-05  0.005797
60   0.000000e+00  0.000000
61   0.000000e+00  0.000000
62   0.000000e+00  0.000000
63   0.000000e+00  0.000000
64   0.000000e+00  0.000000
65   0.000000e+00  0.000000
66   0.000000e+00  0.000000
67  -0.000000e+00  0.000000
68  -0.000000e+00  0.000000
69  -0.000000e+00  0.000000
70  -0.000000e+00  0.000000
71  -1.616733e-05  0.006956
72   0.000000e+00  0.000000
73   0.000000e+00  0.000000
74   0.000000e+00  0.000000
75   0.000000e+00  0.000000
76   0.000000e+00  0.000000
77   0.000000e+00  0.000000
78   0.000000e+00  0.000000
79   0.000000e+00  0.000000
80   0.000000e+00  0.000000
81   0.000000e+00  0.000000
82   0.000000e+00  0.000000
83   0.000000e+00  0.001159
84   0.000000e+00  0.000000
85   0.000000e+00  0.000000
86   0.000000e+00  0.000000
87   0.000000e+00  0.000000
88   0.000000e+00  0.000000
89   0.000000e+00  0.000000
90   0.000000e+00  0.000000
91  -0.000000e+00  0.000000
92   0.000000e+00  0.000000
93  -0.000000e+00  0.000000
94   0.000000e+00  0.000000
95   7.300398e-04  0.002319
96   0.000000e+00  0.000000
97   0.000000e+00  0.000000
98   0.000000e+00  0.000000
99   0.000000e+00  0.000000
100  0.000000e+00  0.000000
101  0.000000e+00  0.000000
102  0.000000e+00  0.000000
103  0.000000e+00  0.000000
104 -0.000000e+00  0.000000
105 -0.000000e+00  0.000000
106 -0.000000e+00  0.000000
107 -7.392624e-04  0.003478
108  0.000000e+00  0.000000
109  0.000000e+00  0.000000
110  0.000000e+00  0.000000
111  0.000000e+00  0.000000
112  0.000000e+00  0.000000
113  0.000000e+00  0.000000
114  0.000000e+00  0.000000
115 -0.000000e+00  0.000000
116 -0.000000e+00  0.000000
117 -0.000000e+00  0.000000
118 -0.000000e+00  0.000000
119 -1.032167e-06  0.011594
120  0.000000e+00  0.000000
121  0.000000e+00  0.000000
122  0.000000e+00  0.000000
123  0.000000e+00  0.000000
124  0.000000e+00  0.000000
125  0.000000e+00  0.000000
126  0.000000e+00  0.000000
127 -0.000000e+00  0.000000
128 -0.000000e+00  0.000000
129 -0.000000e+00  0.000000
130 -0.000000e+00  0.000000
131 -6.757281e-08  0.010435
132  0.000000e+00  0.000000
133  0.000000e+00  0.000000
134  0.000000e+00  0.000000
135  0.000000e+00  0.000000
136  0.000000e+00  0.000000
137  0.000000e+00  0.000000
138  0.000000e+00  0.000000
139 -0.000000e+00  0.000000
140  0.000000e+00  0.000000
141  0.000000e+00  0.000000
142  0.000000e+00  0.000000
143  0.000000e+00  0.012753
144  0.000000e+00  0.000000
145  0.000000e+00  0.000000
146  0.000000e+00  0.000000
147  0.000000e+00  0.000000
148  0.000000e+00  0.000000
149  0.000000e+00  0.000000
150  0.000000e+00  0.000000
151 -0.000000e+00  0.000000
152 -0.000000e+00  0.000000
153 -0.000000e+00  0.000000
154 -0.000000e+00  0.000000
155 -8.696744e-06  0.006956
156  0.000000e+00  0.000000
157  0.000000e+00  0.000000
158  0.000000e+00  0.000000
159  0.000000e+00  0.000000
160  0.000000e+00  0.000000
161  0.000000e+00  0.000000
162  0.000000e+00  0.000000
163  0.000000e+00  0.000000
164 -0.000000e+00  0.000000
165 -0.000000e+00  0.000000
166 -0.000000e+00  0.000000
167 -5.995115e-08  0.011594
168  0.000000e+00  0.000000
169  0.000000e+00  0.000000
170  0.000000e+00  0.000000
171  0.000000e+00  0.000000
172  0.000000e+00  0.000000
173  0.000000e+00  0.000000
174  0.000000e+00  0.000000
175 -0.000000e+00  0.000000
176  0.000000e+00  0.000000
177 -0.000000e+00  0.000000
178 -0.000000e+00  0.000000
179 -4.671373e-07  0.013913
--------------------------------------------------
